test.out
Test of crack propagation. Written by Erik Svenning, Chalmers University of Technology, April 2015
#Grid: ../meshes/plate2Holes1mm.unv
StaticStructural nsteps 100 deltat 1.0 rtolv 1.0e-6 MaxIter 1 minIter 1 lstype 3 smtype 7 nmodules 1 manrmsteps 1
vtkxml tstep_all domain_all primvars 1 1 cellvars 1 1
#gnuplot tstep_all reactionforces xfem matforceradii 3 0.5 1.0 2.0 cracklength
domain 2dPlaneStress
OutputManager 
ndofman 251 nelem 418 ncrosssect 1 nmat 1 nbc 2 nic 0 nltf 2 nset 0 nxfemman 1
node 1     coords 2  0        0       bc 2 1 1
node 2     coords 2  20       0       bc 2 1 1
node 3     coords 2  20       10      bc 2 1 2
node 4     coords 2  0        10      bc 2 1 2
node 5     coords 2  5        7       
node 6     coords 2  19       3       
node 7     coords 2  1        0       bc 2 1 1
node 8     coords 2  2        0       bc 2 1 1
node 9     coords 2  3        0       bc 2 1 1
node 10    coords 2  4        0       bc 2 1 1
node 11    coords 2  5        0       bc 2 1 1
node 12    coords 2  6        0       bc 2 1 1
node 13    coords 2  7        0       bc 2 1 1
node 14    coords 2  8        0       bc 2 1 1
node 15    coords 2  9        0       bc 2 1 1
node 16    coords 2  10       0       bc 2 1 1
node 17    coords 2  11       0       bc 2 1 1
node 18    coords 2  12       0       bc 2 1 1
node 19    coords 2  13       0       bc 2 1 1
node 20    coords 2  14       0       bc 2 1 1
node 21    coords 2  15       0       bc 2 1 1
node 22    coords 2  16       0       bc 2 1 1
node 23    coords 2  17       0       bc 2 1 1
node 24    coords 2  18       0       bc 2 1 1
node 25    coords 2  19       0       bc 2 1 1
node 26    coords 2  20       1       
node 27    coords 2  20       2       
node 28    coords 2  20       3       
node 29    coords 2  20       4       
node 30    coords 2  20       5       
node 31    coords 2  20       6       
node 32    coords 2  20       7       
node 33    coords 2  20       8       
node 34    coords 2  20       9       
node 35    coords 2  19       10      bc 2 1 2
node 36    coords 2  18       10      bc 2 1 2
node 37    coords 2  17       10      bc 2 1 2
node 38    coords 2  16       10      bc 2 1 2
node 39    coords 2  15       10      bc 2 1 2
node 40    coords 2  14       10      bc 2 1 2
node 41    coords 2  13       10      bc 2 1 2
node 42    coords 2  12       10      bc 2 1 2
node 43    coords 2  11       10      bc 2 1 2
node 44    coords 2  10       10      bc 2 1 2
node 45    coords 2  9        10      bc 2 1 2
node 46    coords 2  8        10      bc 2 1 2
node 47    coords 2  7        10      bc 2 1 2
node 48    coords 2  6        10      bc 2 1 2
node 49    coords 2  5        10      bc 2 1 2
node 50    coords 2  4        10      bc 2 1 2
node 51    coords 2  3        10      bc 2 1 2
node 52    coords 2  2        10      bc 2 1 2
node 53    coords 2  1        10      bc 2 1 2
node 54    coords 2  0        9       
node 55    coords 2  0        8       
node 56    coords 2  0        7       
node 57    coords 2  0        6       
node 58    coords 2  0        5       
node 59    coords 2  0        4       
node 60    coords 2  0        3       
node 61    coords 2  0        2       
node 62    coords 2  0        1       
node 63    coords 2  4.77091  7.92945 
node 64    coords 2  4.13613  8.64597 
node 65    coords 2  3.24107  8.98542 
node 66    coords 2  2.29079  8.87003 
node 67    coords 2  1.50298  8.32625 
node 68    coords 2  1.05812  7.47863 
node 69    coords 2  1.05812  6.52137 
node 70    coords 2  1.50298  5.67375 
node 71    coords 2  2.29079  5.12997 
node 72    coords 2  3.24107  5.01458 
node 73    coords 2  4.13613  5.35403 
# ... 178 like lines cut
TrPlaneStress2DXFEM 87    nodes 3   130 69  129 mat 1 crosssect 1 nip 6 nlgeo 0 useplanestrain 1
TrPlaneStress2DXFEM 88    nodes 3   129 69  68  mat 1 crosssect 1 nip 6 nlgeo 0 useplanestrain 1
TrPlaneStress2DXFEM 89    nodes 3   55  56  129 mat 1 crosssect 1 nip 6 nlgeo 0 useplanestrain 1
TrPlaneStress2DXFEM 90    nodes 3   129 56  130 mat 1 crosssect 1 nip 6 nlgeo 0 useplanestrain 1
TrPlaneStress2DXFEM 91    nodes 3   54  55  92  mat 1 crosssect 1 nip 6 nlgeo 0 useplanestrain 1
TrPlaneStress2DXFEM 92    nodes 3   92  55  129 mat 1 crosssect 1 nip 6 nlgeo 0 useplanestrain 1
TrPlaneStress2DXFEM 93    nodes 3   131 132 51  mat 1 crosssect 1 nip 6 nlgeo 0 useplanestrain 1
TrPlaneStress2DXFEM 94    nodes 3   132 64  234 mat 1 crosssect 1 nip 6 nlgeo 0 useplanestrain 1
TrPlaneStress2DXFEM 95    nodes 3   131 65  132 mat 1 crosssect 1 nip 6 nlgeo 0 useplanestrain 1
TrPlaneStress2DXFEM 96    nodes 3   132 65  64  mat 1 crosssect 1 nip 6 nlgeo 0 useplanestrain 1
TrPlaneStress2DXFEM 97    nodes 3   64  63  102 mat 1 crosssect 1 nip 6 nlgeo 0 useplanestrain 1
TrPlaneStress2DXFEM 98    nodes 3   102 63  231 mat 1 crosssect 1 nip 6 nlgeo 0 useplanestrain 1
TrPlaneStress2DXFEM 99    nodes 3   63  5   133 mat 1 crosssect 1 nip 6 nlgeo 0 useplanestrain 1
TrPlaneStress2DXFEM 100   nodes 3   89  5   74  mat 1 crosssect 1 nip 6 nlgeo 0 useplanestrain 1
TrPlaneStress2DXFEM 101   nodes 3   133 5   89  mat 1 crosssect 1 nip 6 nlgeo 0 useplanestrain 1
TrPlaneStress2DXFEM 102   nodes 3   92  129 134 mat 1 crosssect 1 nip 6 nlgeo 0 useplanestrain 1
TrPlaneStress2DXFEM 103   nodes 3   134 67  135 mat 1 crosssect 1 nip 6 nlgeo 0 useplanestrain 1
TrPlaneStress2DXFEM 104   nodes 3   135 131 52  mat 1 crosssect 1 nip 6 nlgeo 0 useplanestrain 1
TrPlaneStress2DXFEM 105   nodes 3   129 68  134 mat 1 crosssect 1 nip 6 nlgeo 0 useplanestrain 1
TrPlaneStress2DXFEM 106   nodes 3   134 68  67  mat 1 crosssect 1 nip 6 nlgeo 0 useplanestrain 1
# ... 398 like lines cut
SimpleCS 1 thick 1.0 material 1
#
#Linear elasticity
IsoLE 1 d 1.0 E 2.0e5 n 0.3 tAlpha 0.0
BoundaryCondition  1 loadTimeFunction 1 prescribedvalue 0.0
BoundaryCondition  2 loadTimeFunction 2 prescribedvalue 0.1
#
ConstantFunction 1 f(t) 1.0
PiecewiseLinFunction 2 npoints 2 t 2 0.0 100.0 f(t) 2 0.0 1.0
XfemStructureManager 1 numberofenrichmentitems 2 numberofgppertri 25 debugvtk 0 vtkexport 1 exportfields 1 4
crack 1 enrichmentfront 1 propagationlaw 1
HeavisideFunction 1
polygonline 1 points 6 -0.5 2.85 -0.1 2.85 1.0 2.85
EnrFrontLinearBranchFuncOneEl
EnrFrontLinearBranchFuncOneEl
# Propagation law based on the concept of material forces (related to the J-integral).
propagationLawMaterialForce radius 0.5 incrementLength 1.0 gc 7.6895
#
crack 2 enrichmentfront 1 propagationlaw 1
HeavisideFunction 1
polygonline 1 points 6 19.0 7.15 20.5 7.15 21.0 7.15
EnrFrontLinearBranchFuncOneEl
EnrFrontLinearBranchFuncOneEl
# Propagation law based on the concept of material forces (related to the J-integral).
propagationLawMaterialForce radius 0.5 incrementLength 1.0 gc 7.6895
