squareBranch9x9.out
XFEM simulation of a plate with edge crack. 
# Sign enrichment is added along the crack and branch enrichment 
# is added within a prescribed radius around the crack tip.
# The case setup was adopted from the XFEM summer course in 
# Luxembourg 2013 taught by prof. Fries and prof. Zilian.
# See http://ces.gforge.uni.lu/download/ for a Matlab version.
#
# 	Copyright (c) 2013, Erik Svenning, Chalmers University of Technology
#
#   This library is free software; you can redistribute it and/or
#   modify it under the terms of the GNU Lesser General Public
#   License as published by the Free Software Foundation; either
#   version 2.1 of the License, or (at your option) any later version.
#
#   This library is distributed in the hope that it will be useful,
#   but WITHOUT ANY WARRANTY; without even the implied warranty of
#   MERCHANTABILITY or FITNESS FOR A PARTICULAR PURPOSE.  See the GNU
#   Lesser General Public License for more details.
#
#   You should have received a copy of the GNU Lesser General Public
#   License along with this library; if not, write to the Free Software
#   Foundation, Inc., 51 Franklin Street, Fifth Floor, Boston, MA  02110-1301  USA
# 
#
XFEMStatic nsteps 1 deltat 1.0 controlmode 1 rtolv 1.0e-6 MaxIter 20 minIter 2 stiffmode 0 nmodules 1
vtkxml tstep_all domain_all primvars 1 1 cellvars 1 1
domain 2dPlaneStress
OutputManager tstep_all dofman_all element_all
ndofman 100 nelem 81 ncrosssect 1 nmat 1 nbc 1 nic 0 nltf 1 nxfemman 1 nset 0
node 1     coords 3  0        0        0       bc 2 1 1
node 2     coords 3  2        0        0       bc 2 1 1
node 3     coords 3  2        2        0       bc 2 1 1
node 4     coords 3  0        2        0       bc 2 1 1
node 5     coords 3  0.222222  0        0       bc 2 1 1
node 6     coords 3  0.444444  0        0       bc 2 1 1
node 7     coords 3  0.666667  0        0       bc 2 1 1
node 8     coords 3  0.888889  0        0       bc 2 1 1
node 9     coords 3  1.11111  0        0       bc 2 1 1
node 10    coords 3  1.33333  0        0       bc 2 1 1
node 11    coords 3  1.55556  0        0       bc 2 1 1
node 12    coords 3  1.77778  0        0       bc 2 1 1
node 13    coords 3  2        0.222222  0       bc 2 1 1
node 14    coords 3  2        0.444444  0       bc 2 1 1
node 15    coords 3  2        0.666667  0       bc 2 1 1
node 16    coords 3  2        0.888889  0       bc 2 1 1
node 17    coords 3  2        1.11111  0       bc 2 1 1
node 18    coords 3  2        1.33333  0       bc 2 1 1
node 19    coords 3  2        1.55556  0       bc 2 1 1
node 20    coords 3  2        1.77778  0       bc 2 1 1
# ... 80 like lines cut
PlaneStress2DXfem 37    nodes 4   2   12  37  13  mat 1 crosssect 1 nip 9 nlgeo 0
PlaneStress2DXfem 38    nodes 4   13  37  38  14  mat 1 crosssect 1 nip 9 nlgeo 0
PlaneStress2DXfem 39    nodes 4   14  38  39  15  mat 1 crosssect 1 nip 9 nlgeo 0
PlaneStress2DXfem 40    nodes 4   15  39  40  16  mat 1 crosssect 1 nip 9 nlgeo 0
PlaneStress2DXfem 41    nodes 4   16  40  41  17  mat 1 crosssect 1 nip 9 nlgeo 0
PlaneStress2DXfem 42    nodes 4   17  41  42  18  mat 1 crosssect 1 nip 9 nlgeo 0
PlaneStress2DXfem 43    nodes 4   18  42  43  19  mat 1 crosssect 1 nip 9 nlgeo 0
PlaneStress2DXfem 44    nodes 4   19  43  44  20  mat 1 crosssect 1 nip 9 nlgeo 0
PlaneStress2DXfem 45    nodes 4   20  44  21  3   mat 1 crosssect 1 nip 9 nlgeo 0
PlaneStress2DXfem 46    nodes 4   12  11  45  37  mat 1 crosssect 1 nip 9 nlgeo 0
PlaneStress2DXfem 47    nodes 4   37  45  46  38  mat 1 crosssect 1 nip 9 nlgeo 0
PlaneStress2DXfem 48    nodes 4   38  46  47  39  mat 1 crosssect 1 nip 9 nlgeo 0
PlaneStress2DXfem 49    nodes 4   39  47  48  40  mat 1 crosssect 1 nip 9 nlgeo 0
PlaneStress2DXfem 50    nodes 4   40  48  49  41  mat 1 crosssect 1 nip 9 nlgeo 0
PlaneStress2DXfem 51    nodes 4   41  49  50  42  mat 1 crosssect 1 nip 9 nlgeo 0
PlaneStress2DXfem 52    nodes 4   42  50  51  43  mat 1 crosssect 1 nip 9 nlgeo 0
PlaneStress2DXfem 53    nodes 4   43  51  52  44  mat 1 crosssect 1 nip 9 nlgeo 0
PlaneStress2DXfem 54    nodes 4   44  52  22  21  mat 1 crosssect 1 nip 9 nlgeo 0
PlaneStress2DXfem 55    nodes 4   11  10  53  45  mat 1 crosssect 1 nip 9 nlgeo 0
PlaneStress2DXfem 56    nodes 4   45  53  54  46  mat 1 crosssect 1 nip 9 nlgeo 0
# ... 61 like lines cut
SimpleCS 1 thick 1.0e-3
#
#Linear elasticity
IsoLE 1 d 0.0 E 1.0e4 n 0.3 tAlpha 0.0
# The analytical solution for the near tip crack field is prescribed along
# the whole boundary. This is done in the Python script located in userdefbc.py
UserDefDirichletBC 1 loadTimeFunction 1 filename userdefbc
ConstantFunction 1 f(t) 1.0
XfemManager 1 numberofenrichmentitems 1 debugvtk 1 vtkexport 1 exportfields 1 4
crack 1 enrichmentdomains 1 1 enrichmentfunction 1 enrichmentdomain 1 enrichmentfront 1
DiscontinuousFunction 1
# The crack is described by a piecewise linear polygon.
polygonline 1 points 6 -0.05 1.0 0.5 1.0 1.0 1.0
# Specification of the enrichment front
EnrFrontLinearBranchFuncRadius radius 0.2
EnrFrontLinearBranchFuncRadius radius 0.2
