test.out
Test of prescribed gradient bc. Written by Erik Svenning, Chalmers University of Technology, February 2014
#
#   This file shows an example on how to use the PrescribedGradient boundary condition.
#   The example consists of a unit square RVE subjected to shear.
#
#   The homogenized stresses are exported to PrescribedGradientGnuplotMeanStress1Time0.dat,
#   where they are stored in the order (sigma_xx sigma_yy sigma_xy sigma_yx).
#
#   The total reaction force on the boundary is exported to ReactionForceGnuplotBC1*.
#   As expected the forces, sum up to zero in both x- and y-direction.
#
# 	Copyright (c) 2013, Erik Svenning, Chalmers University of Technology
#
#   This library is free software; you can redistribute it and/or
#   modify it under the terms of the GNU Lesser General Public
#   License as published by the Free Software Foundation; either
#   version 2.1 of the License, or (at your option) any later version.
#
#   This library is distributed in the hope that it will be useful,
#   but WITHOUT ANY WARRANTY; without even the implied warranty of
#   MERCHANTABILITY or FITNESS FOR A PARTICULAR PURPOSE.  See the GNU
#   Lesser General Public License for more details.
#
#   You should have received a copy of the GNU Lesser General Public
#   License along with this library; if not, write to the Free Software
#   Foundation, Inc., 51 Franklin Street, Fifth Floor, Boston, MA  02110-1301  USA
# 
#
XFEMStatic nsteps 1 deltat 1.0 controlmode 1 rtolv 1.0e-6 MaxIter 40 minIter 2 stiffmode 0 nmodules 2 manrmsteps 1 forceremap 0
vtkxml tstep_all domain_all primvars 1 1 cellvars 1 1
gnuplot tstep_all reactionforces boundaryconditions
domain 2dPlaneStress
OutputManager tstep_all dofman_all element_all
ndofman 121 nelem 100 ncrosssect 1 nmat 1 nbc 1 nic 0 nltf 1 nset 1 nxfemman 1
node 1     coords 3  0        0        0       
node 2     coords 3  1        0        0       
node 3     coords 3  1        1        0       
node 4     coords 3  0        1        0       
node 5     coords 3  0.1      0        0       
node 6     coords 3  0.2      0        0       
node 7     coords 3  0.3      0        0       
node 8     coords 3  0.4      0        0       
node 9     coords 3  0.5      0        0       
node 10    coords 3  0.6      0        0       
node 11    coords 3  0.7      0        0       
node 12    coords 3  0.8      0        0       
node 13    coords 3  0.9      0        0       
node 14    coords 3  1        0.1      0       
node 15    coords 3  1        0.2      0       
node 16    coords 3  1        0.3      0       
node 17    coords 3  1        0.4      0       
node 18    coords 3  1        0.5      0       
node 19    coords 3  1        0.6      0       
node 20    coords 3  1        0.7      0       
# ... 101 like lines cut
PlaneStress2DXFEM 41    nodes 4   2   13  41  14  mat 1 crosssect 1 nip 4 nlgeo 0 useplanestrain 1
PlaneStress2DXFEM 42    nodes 4   14  41  42  15  mat 1 crosssect 1 nip 4 nlgeo 0 useplanestrain 1
PlaneStress2DXFEM 43    nodes 4   15  42  43  16  mat 1 crosssect 1 nip 4 nlgeo 0 useplanestrain 1
PlaneStress2DXFEM 44    nodes 4   16  43  44  17  mat 1 crosssect 1 nip 4 nlgeo 0 useplanestrain 1
PlaneStress2DXFEM 45    nodes 4   17  44  45  18  mat 1 crosssect 1 nip 4 nlgeo 0 useplanestrain 1
PlaneStress2DXFEM 46    nodes 4   18  45  46  19  mat 1 crosssect 1 nip 4 nlgeo 0 useplanestrain 1
PlaneStress2DXFEM 47    nodes 4   19  46  47  20  mat 1 crosssect 1 nip 4 nlgeo 0 useplanestrain 1
PlaneStress2DXFEM 48    nodes 4   20  47  48  21  mat 1 crosssect 1 nip 4 nlgeo 0 useplanestrain 1
PlaneStress2DXFEM 49    nodes 4   21  48  49  22  mat 1 crosssect 1 nip 4 nlgeo 0 useplanestrain 1
PlaneStress2DXFEM 50    nodes 4   22  49  23  3   mat 1 crosssect 1 nip 4 nlgeo 0 useplanestrain 1
PlaneStress2DXFEM 51    nodes 4   13  12  50  41  mat 1 crosssect 1 nip 4 nlgeo 0 useplanestrain 1
PlaneStress2DXFEM 52    nodes 4   41  50  51  42  mat 1 crosssect 1 nip 4 nlgeo 0 useplanestrain 1
PlaneStress2DXFEM 53    nodes 4   42  51  52  43  mat 1 crosssect 1 nip 4 nlgeo 0 useplanestrain 1
PlaneStress2DXFEM 54    nodes 4   43  52  53  44  mat 1 crosssect 1 nip 4 nlgeo 0 useplanestrain 1
PlaneStress2DXFEM 55    nodes 4   44  53  54  45  mat 1 crosssect 1 nip 4 nlgeo 0 useplanestrain 1
PlaneStress2DXFEM 56    nodes 4   45  54  55  46  mat 1 crosssect 1 nip 4 nlgeo 0 useplanestrain 1
PlaneStress2DXFEM 57    nodes 4   46  55  56  47  mat 1 crosssect 1 nip 4 nlgeo 0 useplanestrain 1
PlaneStress2DXFEM 58    nodes 4   47  56  57  48  mat 1 crosssect 1 nip 4 nlgeo 0 useplanestrain 1
PlaneStress2DXFEM 59    nodes 4   48  57  58  49  mat 1 crosssect 1 nip 4 nlgeo 0 useplanestrain 1
PlaneStress2DXFEM 60    nodes 4   49  58  24  23  mat 1 crosssect 1 nip 4 nlgeo 0 useplanestrain 1
# ... 80 like lines cut
SimpleCS 1 thick 1.0 material 1
#
#Linear elasticity
IsoLE 1 d 1.0 E 1.0e6 n 0.3 tAlpha 0.0
PrescribedGradient 1 dofs 2 1 2 set 1 loadTimeFunction 1 gradient 3 3 {0.0 1.0 0.0; 0.0 0.0 0.0; 0.0 0.0 0.0} 
#
ConstantFunction 1 f(t) 1.0
set 1 elementboundaries 80 131 1 121 1 111 1 101 1 91 1 81 1 71 1 61 1 51 1 41 1 41 4 42 4 43 4 44 4 45 4 46 4 47 4 48 4 49 4 50 4 50 3 60 3 70 3 80 3 90 3 100 3 110 3 120 3 130 3 140 3 140 2 139 2 138 2 137 2 136 2 135 2 134 2 133 2 132 2 131 2 
nager 1 numberofenrichmentitems 0
